*Heading
 Single element test for simple shear loading
**
*Parameter
 length = 0.1
 time_1 = 0.05
 time_2 = 0.15
 time_inc = 1.e-7
 stress_ratio = 0.5
 YT = 50.
 SL = 92.3
 GIc = 0.277
 GIIc = 0.788
** Derived parameters
 applied_stress = SL * stress_ratio
 applied_load = applied_stress * ( length * length )
**
*Node, NSET=GLOBAL
      1,            0.,            0.,            0.
      2,      <length>,            0.,            0.
      3,      <length>,      <length>,            0.
      4,            0.,      <length>,            0.
      5,            0.,            0.,      <length>
      6,      <length>,            0.,      <length>
      7,      <length>,      <length>,      <length>
      8,            0.,      <length>,      <length>
*NSET, NSET=X+
  2, 3, 6, 7
*NSET, NSET=X-
  1, 4, 5, 8
*NSET, NSET=Y+
  3, 4, 7, 8
*NSET, NSET=Y-
  1, 2, 5, 6
*NSET, NSET=Z+
  5, 6, 7, 8
*NSET, NSET=Z-
  1, 2, 3, 4
*Nset, nset=LoadNode
 3
*Nset, nset=FollowerNodes
 4, 7, 8
**
*Element, TYPE=C3D8R, ELSET=ALL_ELEMS
  1, 1, 2, 3, 4, 5, 6, 7, 8
**
*Orientation, name=Ori-1
          1.,           0.,           0.,          0.,           1.,           0.
3, 0.
*SOLID SECTION, ELSET=ALL_ELEMS, MATERIAL=IM7-8552, ORIENTATION=Ori-1
**
*Material, name=IM7-8552
*Density
 1.59d-06,
*User material, constants=40
**  1              2        3          4       5          6        7        8
**  feature flags,  ,        ,          ,      gamma_fat, eps_fat, eta_fat, p_fat,
    100000,         ,        ,          ,      1.d7,      0.2,     0.95,    0.0,
**  9              10       11         12      13         14       15       16
**  E1,            E2,      G12,       nu12,   nu23,      YT,      SL,      GYT,
    171420.0,      9080.0,  5290.0,    0.32,   0.52,      <YT>,    <SL>,    <GIc>,
**  17             18       19         20      21         22       23       24
**  GSL,           eta_BK,  YC,        alpha0, E3,        G13,     G23,     nu13,
    <GIIc>,        1.634,   199.8,     0.925,    ,           ,        ,         ,
**  25             26       27         28      29         30       31       32
**  alpha11,       alpha22, alpha_PL,  n_PL,   XT,        fXT,     GXT,     fGXT,
    -5.5d-6,       2.58d-5,         ,      ,   2326.2,    0.2,     133.3,   0.5,
**  33             34       35         36      37         38       39       40
**  XC,            fXC,     GXC,       fGXC,   phi_ff,    w_kb,    T_sf,    mu
    1200.1,           ,        ,           ,   0.2618,    0.1,     0.0,     0
**
*Depvar, delete=11
  19,
  1, CDM_d2
  2, CDM_Fb1
  3, CDM_Fb2
  4, CDM_Fb3
  5, CDM_B
  6, CDM_Lc1
  7, CDM_Lc2
  8, CDM_Lc3
  9, CDM_FIm
 10, CDM_alpha
 11, CDM_STATUS
 12, CDM_Plas12
 13, CDM_Inel12
 14, CDM_FIfT
 15, CDM_slide1
 16, CDM_slide2
 17, CDM_FIfC
 18, CDM_d1T
 19, CDM_d1C
*Characteristic Length, definition=USER, components=3
**
*Initial Conditions, Type=Solution
 ALL_ELEMS,  0.d0,  0.d0,  0.d0,  0.d0,  0.d0,  0.d0,  0.d0,
 0.d0,       0.d0,  0.d0,     1,  0.d0,  0.d0,  0.d0,  0.d0,
 0.d0,       0.d0,  0.d0,  0.d0
**
*BOUNDARY
  Y-, 1, 3, 0
  Y+, 2, 3, 0
**
** Equations for constraining keeping the 2-direction faces parallel
*Equation
 2
 FollowerNodes, 2, 1., 3, 2, -1.
** Equations for constraining keeping the 3-direction faces parallel
*Equation
 2
 FollowerNodes, 1, 1., 3, 1, -1.
**
*Amplitude, name=Amp-Load, definition=SMOOTH STEP
0., 0., <time_1>, 1.
*Amplitude, name=Amp-Fatigue
0., 1., <time_2>, 1.
**
*Filter, name=haltOnFailure, operator=MAX, limit=1.0, halt
********************************************************************************
*Step, name=Load, nlgeom=YES
*Dynamic, Explicit
 , <time_1>
*Variable mass scaling, dt=<time_inc>, type=below min, freq=1
**
*CLoad, amplitude=Amp-Load
 LoadNode, 1, <applied_load>
**
*Output, field, number interval=10
*Element Output
 SDV1, SDV2, SDV3, SDV4, SDV5, SDV9, SDV10, SDV15, SDV16, S
*Node Output
 U, CF
*Output, history, frequency=100
*Energy Output
 ALLSE, ALLKE, ALLPD, ALLVD, ALLWK, ALLMW
*Node Output, nset=LoadNode
 U1, CF1
*Element Output, elset=ALL_ELEMS
 SDV1, SDV2, SDV3, SDV4, SDV5, SDV9, SDV10, SDV15, SDV16, S
**
*End Step
********************************************************************************
*Step, name=Fatigue, nlgeom=YES
*Dynamic, explicit
, <time_2>
*Variable mass scaling, dt=<time_inc>, type=below min, freq=1
**
*CLoad, amplitude=Amp-Fatigue
 LoadNode, 1, <applied_load>
**
*Output, history, frequency=1, filter=haltOnFailure
*Element Output, elset=ALL_ELEMS
 SDV1
**
*Output, field, number interval=100
*Element Output
 SDV1, SDV2, SDV3, SDV4, SDV5, SDV9, SDV10, SDV15, SDV16, S
*Node Output
 U, CF
**
*Output, history, frequency=50
*Energy Output
 ALLSE, ALLKE, ALLPD, ALLVD, ALLWK, ALLMW
*Node Output, nset=LoadNode
 U1, CF1
*Element Output, elset=ALL_ELEMS
 SDV1, SDV2, SDV3, SDV4, SDV5, SDV9, SDV10, SDV15, SDV16, S
**
*End Step