*Heading
 Single cohesive element test for mode II response
**
*Parameter
 length = 0.2
 thickness = 0.0
 displacement = 0.02
 stepDuration = 0.1
**
*Node, nset=Nodes
      1,            0.,            0.,            0.
      2,      <length>,            0.,            0.
      3,      <length>,      <length>,            0.
      4,            0.,      <length>,            0.
      5,            0.,            0.,   <thickness>
      6,      <length>,            0.,   <thickness>
      7,      <length>,      <length>,   <thickness>
      8,            0.,      <length>,   <thickness>
*Nset, nset=X+
  2, 3, 6, 7
*Nset, nset=X-
  1, 4, 5, 8
*Nset, nset=Y+
  3, 4, 7, 8
*Nset, nset=Y-
  1, 2, 5, 6
*Nset, nset=Z+
  5, 6, 7, 8
*Nset, nset=Z-
  1, 2, 3, 4
**
*Element, type=COH3D8, elset=COHESIVE
  1, 1, 2, 3, 4, 5, 6, 7, 8
**
*Cohesive Section, elset=COHESIVE, material=IM7-8552, response=TRACTION SEPARATION, thickness=SPECIFIED
 1.0,
**
*Material, name=IM7-8552
*Density
 1.57e-09,
*User material, constants=40
** feature flags, ,   thickness, 4, 5, 6, 7, 8
          200000, , <thickness>,  ,  ,  ,  ,  ,
**  9         10        11        12        13        14        15        16
**  E1,       E2,       G12,      nu12,     nu23,     YT,       SL        GYT
      ,         ,          ,          ,         ,     62.3,     92.3,     0.277,
**  17        18        19        20        21        22        23        24
**  GSL,      eta_BK,   YC,       alpha0    E3,       G13,      G23,      nu13,
    0.788,    1.634,    199.8,    0.925,    1.d6,        ,         ,          ,
**  25        26        27        28        29        30        31        32
**  alpha11,  alpha22,  alpha_PL, n_PL,     XT,       fXT,      GXT,      fGXT,
           ,         ,          ,     ,       ,          ,         ,          ,
**  33        34        35        36        37        38        39        40
**  XC,       fXC,      GXC,      fGXC,     phi_ff,   w_kb,     phi0,     mu
      ,          ,         ,          ,           ,       ,         ,     0.3
*Depvar
  19,
  1, COH_dmg
  2, COH_delta_s1
  3, COH_delta_n
  4, COH_delta_s2
  5, COH_B
  9, COH_FI
 15, COH_slide1
 16, COH_slide2
** *Characteristic Length, definition=USER, components=3
**
*Initial Conditions, Type=Solution
 COHESIVE,  0.d0,  0.d0,  0.d0,  0.d0,  0.d0,  0.d0,  0.d0,
            0.d0,  0.d0,  0.d0,  0.d0,  0.d0,  0.d0,  0.d0,
            0.d0,  0.d0,  0.d0,  0.d0,  0.d0
*Boundary
  Z+, 2, 3, 0
  Z-, 1, 3, 0
**
*Amplitude, name=LoadUp, definition=SMOOTH STEP
 0., 0., <stepDuration>, 1.
**
*Step, nlgeom=YES
*Dynamic, Explicit
 , <stepDuration>, ,
*Fixed Mass Scaling, factor=5000.
**
*Boundary, AMPLITUDE=LoadUp
 Z+, 1, 1, <displacement>
**
*Output, FIELD
*Element Output
 SDV1, SDV2, SDV3, SDV4, SDV5, SDV9, SDV15, SDV16, S
*Node Output
 U, RF
*Output, HISTORY, frequency=1
*Energy Output
 ALLIE, ALLKE
*Node Output, NSET=Z+
 U, RF
*Element Output, ELSET=COHESIVE
 SDV1, SDV2, SDV3, SDV4, SDV5, SDV9, SDV15, SDV16, S
**
*End Step
