*Heading
** Job name: Test30 Model name: Model-1
** Generated by: Abaqus/CAE 2016.HF3
*Preprint, echo=NO, model=NO, history=NO, contact=NO
**
** PARTS
**
*Part, name=SingleElement
*Node
      1,           0.,           0.,  0.100000000
      2,           0.,  0.100000000,  0.100000000
      3,           0.,           0.,           0.
      4,           0.,  0.100000000,           0.
      5,  0.100000000,           0.,  0.100000000
      6,  0.100000000,  0.100000000,  0.100000000
      7,  0.100000000,           0.,           0.
      8,  0.100000000,  0.100000000,           0.
*Element, type=C3D8R, ELSET=ALL_ELEMS
1, 7, 8, 4, 3, 5, 6, 2, 1
*Nset, nset=LeftEdge, generate
 1,  4,  1
*Nset, nset=RightEdge, generate
 5,  8,  1
*Nset, nset=PinY
 1, 3
*Elset, elset=Element
 1,
*Nset, nset=PinZ
 1,
*Elset, elset=_Surf-1_S2, internal
 1,
*Surface, type=ELEMENT, name=Surf-1
_Surf-1_S2, S2
*Orientation, name=Ori-1
1., 0., 0., 0., 1., 0.
3, 30.
** Section: LE_Section
*Solid Section, elset=Element, orientation=Ori-1, material=IM7-8552
,
*End Part
**  
**
** ASSEMBLY
**
*Assembly, name=Assembly
**  
*Instance, name=SingleElement-1, part=SingleElement
*End Instance
**  
*End Assembly
** 
** MATERIALS
** 
*Material, name=IM7-8552
*Density
 1.59d-05,
*User material, constants=4
** 1              2                  3          4
** feature flags, , thickness, 4, 5, 6, 7, 8
          050000, ,  0.100000000,  ,  ,  ,  , 
**
**
*Depvar
  33,
  1, CDM_d2
  2, CDM_Fb1
  3, CDM_Fb2
  4, CDM_Fb3
  5, CDM_B
  6, CDM_Lc1
  7, CDM_Lc2
  8, CDM_Lc3
  9, CDM_FIm
 10, CDM_alpha
 11, CDM_STATUS
 12, CDM_Plas12
 13, CDM_Inel12
 14, CDM_FIfT
 15, CDM_slide1
 16, CDM_slide2
 17, CDM_FIfC
 18, CDM_d1T
 19, CDM_d1C
 20, CDM_Plas13
 21, CDM_Inel13
 22, CDM_phi0
 23, CDM_gamma
 24, CDM_Fm1
 25, CDM_Fm2
 26, CDM_Fm3
 27, CDM_Ep_schaefer11
 28, CDM_Ep_schaefer22
 29, CDM_Ep_schaefer33
 30, CDM_Ep_schaefer12
 31, CDM_Ep_schaefer23
 32, CDM_Ep_schaefer31
 33, CDM_fp
*Characteristic Length, definition=USER, components=3
**
** INITIAL CONDITIONS
**
*Initial Conditions, Type=Solution
***     1i,    2i,    3i,    4i,    5i,    6i,    7i,
SingleElement-1.ALL_ELEMS,  0.d0,  0.d0,  0.d0,  0.d0,  0.d0,  0.d0,  0.d0,
0.d0, 0.d0,  0.d0,  0.d0,     1,  0.d0,  0.d0,  0.d0,
0.d0, 0.d0,  0.d0,  0.d0,  0.d0,  0.d0,  0.d0,  0.d0,
0.d0, 0.d0,  0.d0,  0.d0,  0.d0,  0.d0,  0.d0,  0.d0,
0.d0, 0.d0
** 
** BOUNDARY CONDITIONS
** 
** Name: PinX Type: Displacement/Rotation
*Boundary
SingleElement-1.LeftEdge, 1, 1
** Name: PinY Type: Displacement/Rotation
*Boundary
SingleElement-1.PinY, 2, 2
** Name: PinZ Type: Displacement/Rotation
*Boundary
SingleElement-1.PinZ, 3, 3
*Amplitude, name=LoadUp, definition=SMOOTH STEP
0., 0., 0.1, 1.
** ----------------------------------------------------------------
** 
** STEP: Load
** 
*STEP, NLGEOM=YES
*Dynamic, Explicit
 , 0.1, ,
*Bulk Viscosity
0.06, 1.2
** Mass Scaling: Semi-Automatic
**               Whole Model
*Fixed Mass Scaling, factor=5000.
** 
** BOUNDARY CONDITIONS
** 
** Name: RightEdgeDisp Type: Displacement/Rotation
*Boundary, AMPLITUDE=LoadUp
SingleElement-1.RightEdge, 1, 1, 0.0025
** 
** OUTPUT REQUESTS
** 
** 
** FIELD OUTPUT: F-Output-1
** 
*Output, field
*ELEMENT OUTPUT
  SDV, S, LE
*Node Output
 U, RF
** 
** HISTORY OUTPUT: H-Output-1
** 
*Output, history
*Node Output, nset=SingleElement-1.RightEdge
RF1, U1
*End Step
