*Heading
 Single cohesive element test for mode I response
**
*Parameter
 length = 0.2
 el_thickness = 0.0
 displacement = 0.01
 stepDuration = 0.1
 density = 1.57e-9
 mass_scaling_factor = 5000
** Material definition
 feature_flags = 200000
 material_options = ""
 constit_thickness = 1.0
**
** CompDam parameters
**
*PARAMETER TABLE TYPE, NAME=KEY_INT, parameters=2
STRING
INTEGER
*TABLE COLLECTION, NAME=COMPDAM_PARAM
** CompDam parameters with integer values
** 0 = False, 1 = True
*PARAMETER TABLE, type=KEY_INT, label=CDP_INT
set_status_0_on_d2, 1
**
**
*Node, nset=Nodes
      1,            0.,            0.,             0.
      2,      <length>,            0.,             0.
      3,      <length>,      <length>,             0.
      4,            0.,      <length>,             0.
      5,            0.,            0., <el_thickness>
      6,      <length>,            0., <el_thickness>
      7,      <length>,      <length>, <el_thickness>
      8,            0.,      <length>, <el_thickness>
*Nset, nset=X+
  2, 3, 6, 7
*Nset, nset=X-
  1, 4, 5, 8
*Nset, nset=Y+
  3, 4, 7, 8
*Nset, nset=Y-
  1, 2, 5, 6
*Nset, nset=Z+
  5, 6, 7, 8
*Nset, nset=Z-
  1, 2, 3, 4
**
*Element, type=COH3D8, elset=COHESIVE
  1, 1, 2, 3, 4, 5, 6, 7, 8
**
*Cohesive Section, elset=COHESIVE, material=IM7-8552, response=TRACTION SEPARATION, thickness=SPECIFIED
 <constit_thickness>,
**
*Material, name=IM7-8552
*Density
 1.57e-09,
*User material, constants=40 <material_options>
** feature flags, 2,   thickness,           4, 5, 6, 7, 8
 <feature_flags>,  ,   <constit_thickness>,  ,  ,  ,  ,  ,
**
**  9         10        11        12        13        14        15        16
**  E1,       E2,       G12,      nu12,     nu23,     YT,       SL        GYT
      ,         ,          ,          ,         ,     62.3,     92.3,     0.277,
**
**  17        18        19        20        21        22        23        24
**  GSL,      eta_BK,   YC,       alpha0    Pen       G13,      G23,      nu13,
    0.788,    1.634,    199.8,    0.925,    1.e6,        ,         ,          ,
**
**  25        26        27        28        29        30        31        32
**  alpha11,  alpha22,  alpha_PL, n_PL,     XT,       fXT,      GXT,      fGXT,
           ,         ,          ,     ,       ,          ,         ,          ,
**
**  33        34        35        36        37        38        39        40
**  XC,       fXC,      GXC,      fGXC,     cl,       w_kb,     T_sf,     mu
      ,          ,         ,          ,           ,       ,         ,
**
*Depvar, delete=11
  19,
  1, COH_dmg
  2, COH_delta_s1
  3, COH_delta_n
  4, COH_delta_s2
  5, COH_B
  9, COH_FI
 11, COH_status
 15, COH_slide1
 16, COH_slide2
**
*Initial Conditions, Type=Solution
 COHESIVE,  0.d0,  0.d0,  0.d0,  0.d0,  0.d0,  0.d0,  0.d0,
 0.d0,      0.d0,  0.d0,     1,  0.d0,  0.d0,  0.d0,  0.d0,
 0.d0,      0.d0,  0.d0,  0.d0
*Boundary
  Z+, 1, 2, 0
  Z-, 1, 3, 0
**
*Amplitude, name=LoadUp, definition=SMOOTH STEP
 0., 0., <stepDuration>, 1.
**
*Step, nlgeom=YES
*Dynamic, Explicit
 , <stepDuration>, ,
*Fixed Mass Scaling, factor=<mass_scaling_factor>
**
*Boundary, AMPLITUDE=LoadUp
 Z+, 3, 3, <displacement>
**
*Parameter
 RFU_output_nset='Z+'
*Include, input=test_COH_outputs.inp
**
*End Step
