*Heading
 Single element test for matrix compression
**
*Parameter
l = 0.20
t = 0.20
stepDuration = 0.1
**
** PARTS
**
*Part, name=Part-1
*Node
      1,  0.,            0.,           0.
      2,  <l>,           0.,           0.
      3,  <l>,          <l>,           0.
      4,  0.,           <l>,           0.
*Element, type=S4R
 1, 1, 2, 3, 4
*Nset, nset=loadApp
 2,
*Nset, nset=loadFollowers
 3
*Nset, nset=left
 1, 4
*Nset, nset=right
 2, 3
*Nset, nset=all, generate
 1,  4,  1
*Elset, elset=all
 1,
*Orientation, name=Ori-1
          0.,           1.,           0.,          -1.,           1.,           0.
 3, 0.
** Section: Section-1
*Shell Section, elset=all, orientation=Ori-1, material=IM7-8552
 <t>,
*Transverse shear stiffness
 5290, 5290, 2987
*End Part
**
**
** ASSEMBLY
**
*Assembly, name=Assembly
**
*Instance, name=Part-1-1, part=Part-1
*End Instance
**
** Constraint: LoadApp
*Equation
 2
 Part-1-1.loadFollowers, 1, -1.
 Part-1-1.loadApp, 1, 1.
*End Assembly
**
*Amplitude, name=Amp-1, definition=SMOOTH STEP
             0.,              0.,    <stepDuration>,              1.
**
** MATERIALS
**
*Material, name=IM7-8552
*Density
 1.57e-09,
*User material, constants=4
** 1              2                  3          4
** feature flags, , thickness, 4, 5, 6, 7, 8
          101000, ,       <t>,  ,  ,  ,  ,  ,
*Depvar, delete=11
  19,
  1, CDM_d2
  2, CDM_Fb1
  3, CDM_Fb2
  4, CDM_Fb3
  5, CDM_B
  6, CDM_Lc1
  7, CDM_Lc2
  8, CDM_Lc3
  9, CDM_FIm
 10, CDM_alpha
 11, CDM_STATUS
 12, CDM_Plas12
 13, CDM_Inel12
 14, CDM_FIfT
 15, CDM_slide1
 16, CDM_slide2
 17, CDM_FIfC
 18, CDM_d1T
 19, CDM_d1C
*Characteristic Length, definition=USER, components=3
**
** INITIAL CONDITIONS
**
*Initial Conditions, Type=Solution
Part-1-1.all,  0.d0,  0.d0,  0.d0,  0.d0,  0.d0,  0.d0,  0.d0,
               0.d0,  0.d0,  -999,     1,  0.d0,  0.d0,  0.d0,
               0.d0,  0.d0,  0.d0,  0.d0,  0.d0
** ----------------------------------------------------------------
**
** STEP: Step-1
**
*Step, name=Step-1, nlgeom=YES
*Dynamic, Explicit
, <stepDuration>
*Bulk Viscosity
 0.06, 1.2
** Mass Scaling: Semi-Automatic
**               Whole Model
*Variable Mass Scaling, type=Below Min, dt=1.d-6, frequency=100
**
** BOUNDARY CONDITIONS
**
** Applied displacement end
*Boundary, amplitude=Amp-1
Part-1-1.loadApp, 1, 1, -0.02
Part-1-1.right, 2, 6
Part-1-1.left, 1, 6
**
** OUTPUT REQUESTS
**
*Output, field, number interval=50
*Node Output
U, RF
*Element Output
1,
S, LE, SDV
**
** HISTORY OUTPUT: H-Output-1
**
*Output, history, frequency=1
*Energy Output
 ALLIE, ALLKE
*Node Output, nset=Part-1-1.loadApp
RF1, U1
*Element Output, elset=Part-1-1.all
S22, LE22, SDV
*End Step
