*Parameter
 alpha = 0
 beta = 0
 length = 0.1
 displacement = 0.04
 friction = 0.3
 beta_r = beta/180.*acos(-1.)
 cosbeta = displacement*cos(beta_r)
 sinbeta = displacement*sin(beta_r)
**
*NODE, NSET=GLOBAL
      1,            0.,            0.,            0.
      2,      <length>,            0.,            0.
      3,      <length>,      <length>,            0.
      4,            0.,      <length>,            0.
      5,            0.,            0.,      <length>
      6,      <length>,            0.,      <length>
      7,      <length>,      <length>,      <length>
      8,            0.,      <length>,      <length>
*NSET, NSET=X+
  2, 3, 6, 7
*NSET, NSET=X-
  1, 4, 5, 8
*NSET, NSET=Y+
  3, 4, 7, 8
*NSET, NSET=Y-
  1, 2, 5, 6
*NSET, NSET=Z+
  5, 6, 7, 8
*NSET, NSET=Z-
  1, 2, 3, 4
**
*ELEMENT, TYPE=C3D8R, ELSET=ALL_ELEMS
  1, 1, 2, 3, 4, 5, 6, 7, 8
**
** PROPERTIES
**
*SOLID SECTION, ELSET=ALL_ELEMS, MATERIAL=DGD
**
** MATERIALS
**
*Material, name=DGD
*Density
1.57e-09,
*User material, constants=39
** 1              2                  3          4
** feature flags, , thickness, 4, 5, 6, 7, 8
          100001, ,  <length>,  ,  ,  ,  ,  ,
**
**  9         10        11        12        13        14        15        16
**  E1,       E2,       G12,      nu12,     nu23,     YT,       SL        GYT
    171420.0, 9080.0,   5290.0,   0.32,     0.52,     62.3,     92.3,     0.277,
**
**  17        18        19        20        21        22        23        24
**  GSL,      eta_BK,   YC,       alpha0    E3,       G13,      G23,      nu13,
    0.788,    1.634,    199.8,    0.925,      ,          ,         ,          ,
**
**  25        26        27        28        29        30        31        32
**  alpha11,  alpha22,  alpha_PL, n_PL,     XT,       fXT,      GXT,      fGXT,
    -5.5d-6,  2.58d-5,          ,     ,     2326.2,   0.75,     133.3,    0.375,
**
**  33        34        35        36        37        38        39        40
**  XC,       fXC,      GXC,      fGXC,     phi_ff,   w_kb,     phi0,     mu
    1200.1,      ,         ,          ,     0.2618,   0.1,      0.038,    <friction>
**
*Depvar, delete=11
  19,
  1, CDM_d2
  2, CDM_Fb1
  3, CDM_Fb2
  4, CDM_Fb3
  5, CDM_B
  6, CDM_Lc1
  7, CDM_Lc2
  8, CDM_Lc3
  9, CDM_FIm
 10, CDM_alpha
 11, CDM_STATUS
 12, CDM_Plas12
 13, CDM_Inel12
 14, CDM_FIfT
 15, CDM_slide1
 16, CDM_slide2
 17, CDM_FIfC
 18, CDM_d1T
 19, CDM_d1C
*Characteristic Length, definition=USER, components=3
**
** INITIAL CONDITIONS
**
*Initial Conditions, Type=Solution
ALL_ELEMS,  0.d0,  0.d0,   0.d0,  0.d0,  0.d0,  0.d0,  0.d0,
            0.d0,  0.d0,<alpha>,     1,  0.d0,  0.d0,  0.d0,
            0.d0,  0.d0,   0.d0,  0.d0,  0.d0
*BOUNDARY
  Y-, 1, 3, 0
  Y+, 1, 1, 0
*Amplitude, name=LoadUp, definition=SMOOTH STEP
0., 0., 0.1, 1.
*Amplitude, name=LoadDown, definition=SMOOTH STEP
0., 1., 0.2, -1.
**
*STEP, NLGEOM=YES
*Dynamic, Explicit
 , 0.1, ,
*Fixed Mass Scaling, factor=5000.
*Variable Mass Scaling, dt=5.0d-7, type=BELOW MIN, frequency=100
**
** OUTPUT
**
*OUTPUT, FIELD, VARIABLE=PRESELECT
*ELEMENT OUTPUT, VARIABLE=PRESELECT
 SDV, S, LE
*Node Output, variable=preselect
 U, RF
*OUTPUT, HISTORY, VARIABLE=PRESELECT, frequency=1
*NODE OUTPUT, NSET=Y+
 U, RF
*ELEMENT OUTPUT, VARIABLE=PRESELECT, ELSET=ALL_ELEMS
 SDV, S, LE
**
** LOADING
**
*Boundary, AMPLITUDE=LoadUp
 Y+, 2, 2, <cosbeta>
 Y+, 3, 3, <sinbeta>
*END STEP
*STEP, NLGEOM=YES
*Dynamic, Explicit
 , 0.2, ,
*Fixed Mass Scaling, factor=5000.
*Variable Mass Scaling, dt=5.0d-7, type=BELOW MIN, frequency=100
**
** OUTPUT
**
*OUTPUT, FIELD, VARIABLE=PRESELECT
*ELEMENT OUTPUT, VARIABLE=PRESELECT
 SDV, S, LE
*Node Output, variable=preselect
 U, RF
*OUTPUT, HISTORY, VARIABLE=PRESELECT, frequency=1
*NODE OUTPUT, NSET=Y+
 U, RF
*ELEMENT OUTPUT, VARIABLE=PRESELECT, ELSET=ALL_ELEMS
 SDV, S, LE
**
** LOADING
**
*Boundary, AMPLITUDE=LoadDown
 Y+, 2, 2, <cosbeta>
 Y+, 3, 3, <sinbeta>
*END STEP
