*Heading
 Single element test for matrix-direction elastic response
**
*Parameter
 length1 = 0.1
 length2 = 0.2
 length3 = 0.3
 displacement = 0.01
 stepDuration = 0.1
**
** NODES
**
*NODE, NSET=GLOBAL
      1,            0.,             0.
      2,      <length1>,            0.
      3,      <length1>,     <length2>
      4,            0.,      <length2>
*NSET, NSET=X+
  2, 3
*NSET, NSET=X-
  1, 4
*NSET, NSET=Y+
  3, 4
*NSET, NSET=Y-
  1, 2
**
** ELEMENTS
**
*ELEMENT, TYPE=CPS4R, ELSET=ALL_ELEMS
  1, 1, 2, 3, 4
**
** PROPERTIES
**
*SOLID SECTION, ELSET=ALL_ELEMS, MATERIAL=IM7-8552, orientation=Ori-1
**
*Orientation, name=Ori-1
 1., 0., 0., 0., 1., 0.
 3, 0.
**
** MATERIALS
**
*Material, name=IM7-8552
*Density
 1.57e-09,
*User material, constants=4
** 1              2                  3          4
** feature flags, , thickness, 4, 5, 6, 7, 8
 0, ,  <length3>,  ,  ,  ,  ,  ,
**
*Depvar, delete=11
  19,
  1, CDM_d2
  2, CDM_Fb1
  3, CDM_Fb2
  4, CDM_Fb3
  5, CDM_B
  6, CDM_Lc1
  7, CDM_Lc2
  8, CDM_Lc3
  9, CDM_FIm
 10, CDM_alpha
 11, CDM_STATUS
 12, CDM_Plas12
 13, CDM_Inel12
 14, CDM_FIfT
 15, CDM_slide1
 16, CDM_slide2
 17, CDM_FIfC
 18, CDM_d1T
 19, CDM_d1C
*Characteristic Length, definition=USER, components=2
**
** INITIAL CONDITIONS
**
*Initial Conditions, Type=Solution
ALL_ELEMS,  0.d0,  0.d0,  0.d0,  0.d0,  0.d0,  0.d0,  0.d0,
            0.d0,  0.d0,  -999,     1,  0.d0,  0.d0,  0.d0,
            0.d0,  0.d0,  0.d0,  0.d0,  0.d0
*Boundary
  Y-, 2, 2, 0
  X-, 1, 1, 0
**
*Amplitude, name=LoadUp, definition=SMOOTH STEP
 0., 0., <stepDuration>, 1.
** STEP 1 - TENSION MECHANICAL CYCLE
**
*STEP, NLGEOM=YES
*Dynamic, Explicit
 , <stepDuration>, ,
*Bulk Viscosity
 0.06, 1.2
** Mass Scaling: Semi-Automatic
**               Whole Model
*Fixed Mass Scaling, factor=5000.
**
** LOADING
**
*Boundary, AMPLITUDE=LoadUp
 Y+, 2, 2, <displacement>
**
** OUTPUT
**
*OUTPUT, FIELD
*ELEMENT OUTPUT
 SDV, S, LE
*Node Output
 U, RF
*OUTPUT, HISTORY, frequency=1
*Energy Output
 ALLIE, ALLKE
*NODE OUTPUT, NSET=Y+
 U
*NODE OUTPUT, NSET=Y+
 RF
*ELEMENT OUTPUT, ELSET=ALL_ELEMS
 SDV, S, LE
**
*END STEP
