*Parameter
 length = 0.1
 displacement = 0.05
 stepDuration = 0.1
 loadRatio = 0
 beta_r = loadRatio*90./180.*acos(-1.)
 cosbeta = displacement*cos(beta_r)
 sinbeta = displacement*sin(beta_r)
**
*NODE, NSET=all
      1,            0.,            0.,            0.
      2,      <length>,            0.,            0.
      3,      <length>,      <length>,            0.
      4,            0.,      <length>,            0.
      5,            0.,            0.,      <length>
      6,      <length>,            0.,      <length>
      7,      <length>,      <length>,      <length>
      8,            0.,      <length>,      <length>
*NSET, NSET=X+
  2, 3, 6, 7
*NSET, NSET=X-
  1, 4, 5, 8
*NSET, NSET=Y+
  3, 4, 7, 8
*NSET, NSET=Y-
  1, 2, 5, 6
*NSET, NSET=Z+
  5, 6, 7, 8
*NSET, NSET=Z-
  1, 2, 3, 4
*ELEMENT, TYPE=C3D8R, ELSET=all
  1, 1, 2, 3, 4, 5, 6, 7, 8
**
*Orientation, name=Ori-1
 1., 0., 0., 0., 1., 0.
 3, 0.
**
*Solid Section, elset=all, orientation=Ori-1, material=IM7-8552, controls=SectionCtrl-1
,
**
*Section controls, name=SectionCtrl-1, distortion control=YES
**
*Amplitude, name=Amp-1, definition=SMOOTH STEP
 0., 0., <stepDuration>, 1.
**
*Material, name=IM7-8552
*Density
 1.57e-09,
*User material, constants=5
 101101, , <length>,  ,  ,  ,  ,  ,
*Depvar
  19,
  1, CDM_d2
  2, CDM_Fb1
  3, CDM_Fb2
  4, CDM_Fb3
  5, CDM_B
  6, CDM_Lc1
  7, CDM_Lc2
  8, CDM_Lc3
  9, CDM_FIm
 10, CDM_alpha
 11, CDM_STATUS
 12, CDM_Plas12
 13, CDM_Inel12
 14, CDM_FIfT
 15, CDM_slide1
 16, CDM_slide2
 17, CDM_FIfC
 18, CDM_d1T
 19, CDM_d1C
*Characteristic Length, definition=USER, components=3
**
*Initial Conditions, Type=Solution
 all,  0.d0,  0.d0,  0.d0,  0.d0,  0.d0,  0.d0,  0.d0,
       0.d0,  0.d0,     0,     1,  0.d0,  0.d0,  0.d0,
       0.d0,  0.d0,  0.d0,  0.d0,  0.d0
**
*Boundary
 Y-, 1, 3, 0
 Y+, 2, 2, 0
**
*Filter, name=haltOnFailure, operator=Max, limit=1.0, HALT
** ----------------------------------------------------------------
*Step, name=Step-1, nlgeom=YES
*Dynamic, Explicit
, <stepDuration>
**
*Fixed Mass Scaling, factor=5000.
**
*Boundary, AMPLITUDE=Amp-1
 Y+, 1, 1, <cosbeta>
 Y+, 3, 3, <sinbeta>
**
*Output, field, number interval=50
*Node Output
 U, RF
*Element Output
 S, LE, SDV
**
*Output, history, frequency=1
*Element Output, elset=all
 S, LE, SDV
**
*Output, history, frequency=1, filter=haltOnFailure
*Element Output, elset=all
 SDV9
**
*End Step
