*Heading
 Single cohesive element fatigue test for mode II response
**
*Parameter
** Input parameters
 length = 0.1
 th = 0.0
 time_1 = 0.01
 time_2 = 0.02
 time_inc = 1.e-8
 stress_ratio = 0.5
 YT = 80.1
 SL = 97.6
 GIc = 0.240
 GIIc = 0.739
** Derived parameters
 applied_stress = SL * stress_ratio
 nodal_load = applied_stress * ( length * length ) / 4.
**
*Node, nset=Nodes
      1,            0.,            0.,            0.
      2,      <length>,            0.,            0.
      3,      <length>,      <length>,            0.
      4,            0.,      <length>,            0.
      5,            0.,            0.,          <th>
      6,      <length>,            0.,          <th>
      7,      <length>,      <length>,          <th>
      8,            0.,      <length>,          <th>
*Nset, nset=X+
  2, 3, 6, 7
*Nset, nset=X-
  1, 4, 5, 8
*Nset, nset=Y+
  3, 4, 7, 8
*Nset, nset=Y-
  1, 2, 5, 6
*Nset, nset=Z+
  5, 6, 7, 8
*Nset, nset=Z-
  1, 2, 3, 4
**
*Element, type=COH3D8, elset=COHESIVE
  1, 1, 2, 3, 4, 5, 6, 7, 8
**
*Cohesive Section, elset=COHESIVE, material=IM7-8552, response=TRACTION SEPARATION, thickness=SPECIFIED, controls=cohesive_controls
 1.0,
**
** Section controls for cohesive elements
*Section Controls, name=cohesive_controls
** , , , scale factor for linear bulk viscosity, scale factor for quadratic bulk viscosity
, , , 0.0, 0.0
**
*Material, name=IM7-8552
*Density
 1.57e-09,
*User material, constants=40
**  1              2        3          4       5          6        7        8
**  feature flags,  ,       thickness,  ,      gamma_fat, eps_fat, eta_fat, p_fat,
    200000,         ,       <th>,       ,      1.d7,      0.2,     0.95,    0.0,
**  9              10       11         12      13         14       15       16
**  E1,            E2,      G12,       nu12,   nu23,      YT,      SL,      GYT,
      ,              ,         ,           ,       ,      <YT>,    <SL>,    <GIc>,
**  17             18       19         20      21         22       23       24
**  GSL,           eta_BK,  YC,        alpha0, E3,        G13,     G23,     nu13,
    <GIIc>,        2.1,     199.8,     0.925,  2.d5,         ,        ,         ,
**  25             26       27         28      29         30       31       32
**  alpha11,       alpha22, alpha_PL,  n_PL,   XT,        fXT,     GXT,     fGXT,
           ,              ,         ,      ,     ,           ,        ,         ,
**  33             34       35         36      37         38       39       40
**  XC,            fXC,     GXC,       fGXC,   phi_ff,    w_kb,    T_sf,    mu
      ,               ,        ,           ,         ,        ,        ,    0.0
*Depvar
  19,
  1, COH_dmg
  2, COH_delta_s1
  3, COH_delta_n
  4, COH_delta_s2
  5, COH_B
  9, COH_FI
 15, COH_slide1
 16, COH_slide2
**
*Initial Conditions, Type=Solution
 COHESIVE,  0.d0,  0.d0,  0.d0,  0.d0,  0.d0,  0.d0,  0.d0,
            0.d0,  0.d0,  0.d0,  0.d0,  0.d0,  0.d0,  0.d0,
            0.d0,  0.d0,  0.d0,  0.d0,  0.d0
*Boundary
  Z+, 2, 3, 0
  Z-, 1, 3, 0
**
*Amplitude, name=Amp-Load, definition=SMOOTH STEP
0., 0., <time_1>, 1.
*Amplitude, name=Amp-Fatigue
0., 1., <time_2>, 1.
**
*Equation
2
6, 1, 1.0, 5, 1, -1.0
2
7, 1, 1.0, 6, 1, -1.0
2
8, 1, 1.0, 7, 1, -1.0
**
*Filter, name=haltOnFailure, operator=MAX, limit=1.0, halt
********************************************************************************
*Step, name=Load, nlgeom=YES
*Dynamic, Explicit
 , <time_1>
*Variable mass scaling, dt=<time_inc>, type=below min, freq=1
**
*CLoad, amplitude=Amp-Load
 Z+, 1, <nodal_load>
**
*Output, field, number interval=10
*Element Output
 SDV1, SDV2, SDV3, SDV4, SDV5, SDV9, SDV15, SDV16, S
*Node Output
 U, CF
*Output, history, frequency=100
*Energy Output
 ALLSE, ALLKE, ALLPD, ALLVD, ALLWK, ALLMW
*Node Output, nset=Z+
 U1, CF1
*Element Output, elset=COHESIVE
 SDV1, SDV2, SDV3, SDV4, SDV5, SDV9, SDV15, SDV16, S
**
*End Step
********************************************************************************
*Step, name=Fatigue, nlgeom=YES
*Dynamic, explicit
, <time_2>
*Variable mass scaling, dt=<time_inc>, type=below min, freq=1
**
*CLoad, amplitude=Amp-Fatigue
Z+, 1, <nodal_load>
**
*Output, history, frequency=1, filter=haltOnFailure
*Element Output, elset=COHESIVE
 SDV1
**
*Output, field, number interval=100
*Element Output
 SDV1, SDV2, SDV3, SDV4, SDV5, SDV9, SDV15, SDV16, S
*Node Output
 U, CF
**
*Output, history, frequency=1
*Energy Output
 ALLSE, ALLKE, ALLPD, ALLVD, ALLWK, ALLMW
*Node Output, nset=Z+
 U1, CF1
*Element Output, elset=COHESIVE
 SDV1, SDV2, SDV3, SDV4, SDV5, SDV9, SDV15, SDV16, S
**
*End Step
