*Heading
 Single element test for simple shear loading with friction and compression
**
*Parameter
 length = 0.1
 shear_displacement = 0.05*2.0
 compression_1 = -40.0
**
** NODES
**
*NODE, NSET=GLOBAL
      1,            0.,            0.,            0.
      2,      <length>,            0.,            0.
      3,      <length>,      <length>,            0.
      4,            0.,      <length>,            0.
      5,            0.,            0.,      <length>
      6,      <length>,            0.,      <length>
      7,      <length>,      <length>,      <length>
      8,            0.,      <length>,      <length>
*NSET, NSET=X+
  2, 3, 6, 7
*NSET, NSET=X-
  1, 4, 5, 8
*NSET, NSET=Y+
  3, 4, 7, 8
*NSET, NSET=Y-
  1, 2, 5, 6
*NSET, NSET=Z+
  5, 6, 7, 8
*NSET, NSET=Z-
  1, 2, 3, 4
*NSET, NSET=X_load
  3
**
** ELEMENTS
**
*ELEMENT, TYPE=C3D8R, ELSET=ALL_ELEMS
  1, 1, 2, 3, 4, 5, 6, 7, 8
**
** PROPERTIES
**
*SOLID SECTION, ELSET=ALL_ELEMS, MATERIAL=IM7-8552
**
** MATERIALS
**
*Material, name=IM7-8552
*Density
 1.59d-05,
*User material, constants=1
 100001,
*Depvar, delete=11
  19,
  1, CDM_d2
  2, CDM_Fb1
  3, CDM_Fb2
  4, CDM_Fb3
  5, CDM_B
  6, CDM_Lc1
  7, CDM_Lc2
  8, CDM_Lc3
  9, CDM_FIm
 10, CDM_alpha
 11, CDM_STATUS
 12, CDM_Plas12
 13, CDM_Inel12
 14, CDM_FIfT
 15, CDM_slide1
 16, CDM_slide2
 17, CDM_FIfC
 18, CDM_d1T
 19, CDM_d1C
*Characteristic Length, definition=USER, components=3
**
** INITIAL CONDITIONS
**
*Initial Conditions, Type=Solution
ALL_ELEMS,  0.d0,  0.d0,  0.d0,  0.d0,  0.d0,  0.d0,  0.d0,
            0.d0,  0.d0,  0.d0,     1,  0.d0,  0.d0,  0.d0,
            0.d0,  0.d0,  0.d0,  0.d0,  0.d0
*Boundary
  Y-, 2, 2
  Z-, 3, 3
**
*Amplitude, name=Compression, definition=SMOOTH STEP
0., 0., 0.1, 1.
*Amplitude, name=LoadUp, definition=SMOOTH STEP
0., 0., 0.1, 1.
*Amplitude, name=LoadDown, definition=SMOOTH STEP
0., 1., 0.2, -1.
**
*Equation
** Parallel edges due to 1-direction loading
2
1, 1, 1., 3, 1, 1.
2
4, 1, 1., 2, 1, 1.
** Same 1-direction displacements on negative and positive z faces
2
5, 1, 1., 1, 1, -1.
2
6, 1, 1., 2, 1, -1.
2
7, 1, 1., 3, 1, -1.
2
8, 1, 1., 4, 1, -1.
** Y+ surface remains parallel to Y- surface
2
8, 2, 1., 7, 2, -1.
2
7, 2, 1., 4, 2, -1.
2
4, 2, 1., 3, 2, -1.
** Z+ surface remains parallel to Z- surface
2
8, 3, 1., 7, 3, -1.
2
7, 3, 1., 6, 3, -1.
2
6, 3, 1., 5, 3, -1.
** Y+ surface follower nodes for 1-direction loading
2
8, 1, 1., 3, 1, -1.
2
7, 1, 1., 3, 1, -1.
2
4, 1, 1., 3, 1, -1.
** ----------------------------------------------------------------
*Step, nlgeom=YES
*Dynamic, Explicit
 , 0.1, ,
**
*Variable mass scaling, type=BELOW MIN, dt=1.d-6, frequency=1
**
*OUTPUT, FIELD
*ELEMENT OUTPUT
 SDV, S, LE
*Node Output
 U, RF, CF
*OUTPUT, HISTORY, frequency=1
*Energy Output
 ALLIE, ALLKE, ALLPD
*NODE OUTPUT, NSET=X_load
 U, RF
*ELEMENT OUTPUT, ELSET=ALL_ELEMS
 SDV, S, LE
**
*Dload, amplitude=Compression, Constant resultant=No, follower=No
1, TRVEC5, <compression_1>, 0.0, 1.0, 0.0
**
*End Step
** ----------------------------------------------------------------
*Step
*Dynamic, Explicit
 , 0.1, ,
**
*OUTPUT, FIELD
*ELEMENT OUTPUT
 SDV, S, LE
*Node Output
 U, RF
*OUTPUT, HISTORY, frequency=1
*Energy Output
 ALLIE, ALLKE, ALLPD
*NODE OUTPUT, NSET=X_load
 U, RF
*ELEMENT OUTPUT, ELSET=ALL_ELEMS
 SDV, S, LE
**
*Boundary, AMPLITUDE=LoadUp
 X_load, 1, 1, <shear_displacement>
**
*End Step
** ----------------------------------------------------------------
*Step
*Dynamic, Explicit
 , 0.2, ,
**
*OUTPUT, FIELD
*ELEMENT OUTPUT
 SDV, S, LE
*Node Output
 U, RF
*OUTPUT, HISTORY, frequency=1
*Energy Output
 ALLIE, ALLKE, ALLPD
*NODE OUTPUT, NSET=X_load
 U, RF
*ELEMENT OUTPUT, ELSET=ALL_ELEMS
 SDV, S, LE
**
*Boundary, AMPLITUDE=LoadDown
 X_load, 1, 1, <shear_displacement>
**
*End Step
