*Heading
 Single element test for matrix tension
**
*Parameter
 length = 0.1
 displacement = 0.02
 stepDuration = 1.0
**
** NODES
**
*NODE, NSET=GLOBAL
      1,            0.,            0.,            0.
      2,      <length>,            0.,            0.
      3,      <length>,      <length>,            0.
      4,            0.,      <length>,            0.
      5,            0.,            0.,      <length>
      6,      <length>,            0.,      <length>
      7,      <length>,      <length>,      <length>
      8,            0.,      <length>,      <length>
*NSET, NSET=X+
  2, 3, 6, 7
*NSET, NSET=X-
  1, 4, 5, 8
*NSET, NSET=Y+
  3, 4, 7, 8
*NSET, NSET=Y-
  1, 2, 5, 6
*NSET, NSET=Z+
  5, 6, 7, 8
*NSET, NSET=Z-
  1, 2, 3, 4
**
** ELEMENTS
**
*ELEMENT, TYPE=C3D8R, ELSET=ALL_ELEMS
  1, 1, 2, 3, 4, 5, 6, 7, 8
**
** PROPERTIES
**
*Orientation, name=Ori-1
 1., 0., 0., 0., 1., 0.
3, 0.
*SOLID SECTION, ELSET=ALL_ELEMS, MATERIAL=IM7-8552, controls=C-1, Orientation=Ori-1
*Section Controls, name=C-1, hourglass=ENHANCED
**
** MATERIALS
**
*Material, name=IM7-8552
*Density
 1.59d-05,
*User material, constants=39
** 1              2                  3          4
** feature flags, , thickness, 4, 5, 6, 7, 8
          100000, ,  <length>,  ,  ,  ,  ,  ,
**
**  9         10        11        12        13        14        15        16
**  E1,       E2,       G12,      nu12,     nu23,     YT,       SL        GYT
    171420.0, 9080.0,   5290.0,   0.32,     0.52,     50,     92.30,    0.277,
**
**  17        18        19        20        21        22        23        24
**  GSL,      eta_BK,   YC,       alpha0    E3,       G13,      G23,      nu13,
    0.788,    1.634,    199.8,    0.925,      ,          ,         ,          ,
**
**  25        26        27        28        29        30        31        32
**  alpha11,  alpha22,  alpha_PL, n_PL,     XT,       fXT,      GXT,      fGXT,
    -5.5d-6,  2.58d-5,          ,     ,     2326.2,   0.2,      133.3,    0.5,
**
**  33        34        35        36        37        38        39        40
**  XC,       fXC,      GXC,      fGXC,     phi_ff,   w_kb,     phi0,     mu
    1200.1,      ,         ,          ,     0.2618,   0.1,      0.038,    0
**
*Depvar, delete=11
  28,
  1, CDM_d2
  2, CDM_Fb1
  3, CDM_Fb2
  4, CDM_Fb3
  5, CDM_B
  6, CDM_Lc1
  7, CDM_Lc2
  8, CDM_Lc3
  9, CDM_FIm
 10, CDM_alpha
 11, CDM_STATUS
 12, CDM_Plas12
 13, CDM_Inel12
 14, CDM_FIfT
 15, CDM_slide1
 16, CDM_slide2
 17, CDM_FIfC
 18, CDM_d1T
 19, CDM_d1C
 20, CDM_DIRECT11
 21, CDM_DIRECT21
 22, CDM_DIRECT31
 23, CDM_DIRECT12
 24, CDM_DIRECT22
 25, CDM_DIRECT32
 26, CDM_DIRECT13
 27, CDM_DIRECT23
 28, CDM_DIRECT33
*User defined field
**
** INITIAL CONDITIONS
**
*Initial Conditions, Type=Solution
ALL_ELEMS,  0.d0,  0.d0,  0.d0,  0.d0,  0.d0,  0.d0,  0.d0,
0.d0,  0.d0,  0.d0,     1,  0.d0,  0.d0,  0.d0,  0.d0,
0.d0,  0.d0,  0.d0,  0.d0,  0.d0,  0.d0,  0.d0,  0.d0,
0.d0,  0.d0,  0.d0,  0.d0,  0.d0
*Initial Conditions, Type=Field, Variable=1
GLOBAL,  0.d0
**
** Boundary conditions
**
*BOUNDARY
  Y-, 2, 2, 0
  X-, 1, 1, 0
  Z-, 3, 3, 0
**
** Equations for constraining keeping the 1-direction faces parallel
*Equation
 2
 2, 1, 1., 3, 1, -1.
 2
 3, 1, 1., 6, 1, -1.
 2
 6, 1, 1., 7, 1, -1.
** Equations for constraining keeping the 3-direction faces parallel
*Equation
 2
 5, 3, 1., 6, 3, -1.
 2
 6, 3, 1., 7, 3, -1.
 2
 7, 3, 1., 8, 3, -1.
**
*Amplitude, name=LoadUp, definition=SMOOTH STEP
 0., 0., <stepDuration>, 1.
** STEP 1 - TENSION MECHANICAL CYCLE
**
*STEP, nlgeom=YES, inc=1000
*Dynamic, application=QUASI-STATIC, initial=NO
 0.01, <stepDuration>, 5.e-6, 0.01
**
** OUTPUT
**
*OUTPUT, FIELD, frequency=1
*ELEMENT OUTPUT
 SDV, S, LE
*Node Output
 U, RF
*OUTPUT, HISTORY, frequency=1
*Energy Output
 ALLIE, ALLKE
*NODE OUTPUT, NSET=Y+
 U, RF
*ELEMENT OUTPUT, ELSET=ALL_ELEMS
 SDV, S, LE
**
** LOADING
**
*Boundary, AMPLITUDE=LoadUp
 Y+, 2, 2, <displacement>
*END STEP
