*Heading
 Single element test for simple shear loading
**
*Parameter
 length = 0.1
 displacement = 0.1
 stepDuration = 1.0
**
** NODES
**
*NODE, NSET=GLOBAL
      1,            0.,            0.,            0.
      2,      <length>,            0.,            0.
      3,      <length>,      <length>,            0.
      4,            0.,      <length>,            0.
      5,            0.,            0.,      <length>
      6,      <length>,            0.,      <length>
      7,      <length>,      <length>,      <length>
      8,            0.,      <length>,      <length>
*NSET, NSET=X+
  2, 3, 6, 7
*NSET, NSET=X-
  1, 4, 5, 8
*NSET, NSET=Y+
  3, 4, 7, 8
*NSET, NSET=Y-
  1, 2, 5, 6
*NSET, NSET=Z+
  5, 6, 7, 8
*NSET, NSET=Z-
  1, 2, 3, 4
**
** ELEMENTS
**
*ELEMENT, TYPE=C3D8R, ELSET=ALL_ELEMS
  1, 1, 2, 3, 4, 5, 6, 7, 8
**
** PROPERTIES
**
*Orientation, name=Ori-1
 1., 0., 0., 0., 1., 0.
3, 0.
*SOLID SECTION, ELSET=ALL_ELEMS, MATERIAL=IM7-8552, controls=C-1, Orientation=Ori-1
*Section Controls, name=C-1, hourglass=ENHANCED
**
** MATERIALS
**
*Material, name=IM7-8552
*Density
 1.59d-05,
*User material, constants=4
** 1              2                  3          4
** feature flags, , thickness, 4, 5, 6, 7, 8
          100000, ,  <length>,  ,  ,  ,  ,  ,
**
*Depvar, delete=11
  28,
  1, CDM_d2
  2, CDM_Fb1
  3, CDM_Fb2
  4, CDM_Fb3
  5, CDM_B
  6, CDM_Lc1
  7, CDM_Lc2
  8, CDM_Lc3
  9, CDM_FIm
 10, CDM_alpha
 11, CDM_STATUS
 12, CDM_Plas12
 13, CDM_Inel12
 14, CDM_FIfT
 15, CDM_slide1
 16, CDM_slide2
 17, CDM_FIfC
 18, CDM_d1T
 19, CDM_d1C
 20, CDM_DIRECT11
 21, CDM_DIRECT21
 22, CDM_DIRECT31
 23, CDM_DIRECT12
 24, CDM_DIRECT22
 25, CDM_DIRECT32
 26, CDM_DIRECT13
 27, CDM_DIRECT23
 28, CDM_DIRECT33
*User defined field
**
** INITIAL CONDITIONS
**
*Initial Conditions, Type=Solution
ALL_ELEMS,  0.d0,  0.d0,  0.d0,  0.d0,  0.d0,  0.d0,  0.d0,
0.d0,  0.d0,  0.d0,     1,  0.d0,  0.d0,  0.d0,  0.d0,
0.d0,  0.d0,  0.d0,  0.d0,  0.d0,  0.d0,  0.d0,  0.d0,
0.d0,  0.d0,  0.d0,  0.d0,  0.d0
*Initial Conditions, Type=Field, Variable=1
GLOBAL,  0.d0
**
** Boundary conditions
**
*BOUNDARY
  Y-, 1, 3, 0
  Y+, 2, 3, 0
*Amplitude, name=LoadUp, definition=SMOOTH STEP
 0., 0., <stepDuration>, 1.
** STEP 1 - TENSION MECHANICAL CYCLE
**
*STEP, nlgeom=YES, inc=1000
*Dynamic, application=QUASI-STATIC, initial=NO
 0.005, <stepDuration>, 5.e-6, 0.005
**
** OUTPUT
**
*OUTPUT, FIELD, frequency=1
*ELEMENT OUTPUT
 SDV, S, LE
*Node Output
 U, RF
*OUTPUT, HISTORY, frequency=1
*Energy Output
 ALLIE, ALLKE
*NODE OUTPUT, NSET=Y+
 U, RF
*ELEMENT OUTPUT, ELSET=ALL_ELEMS
 SDV, S, LE
**
** LOADING
**
*Boundary, AMPLITUDE=LoadUp
 Y+, 1, 1, <displacement>
*END STEP
