*Heading
 Single element test for matrix-direction elastic response
**
*Parameter
 length = 0.2
 displacement = 0.01
 stepDuration = 0.1
**
** NODES
**
*NODE, NSET=GLOBAL
      1,            0.,            0.,            0.
      2,      <length>,            0.,            0.
      3,      <length>,      <length>,            0.
      4,            0.,      <length>,            0.
      5,            0.,            0.,      <length>
      6,      <length>,            0.,      <length>
      7,      <length>,      <length>,      <length>
      8,            0.,      <length>,      <length>
*NSET, NSET=X+
  2, 3, 6, 7
*NSET, NSET=X-
  1, 4, 5, 8
*NSET, NSET=Y+
  3, 4, 7, 8
*NSET, NSET=Y-
  1, 2, 5, 6
*NSET, NSET=Z+
  5, 6, 7, 8
*NSET, NSET=Z-
  1, 2, 3, 4
**
** ELEMENTS
**
*ELEMENT, TYPE=C3D8R, ELSET=ALL_ELEMS
  1, 1, 2, 3, 4, 5, 6, 7, 8
**
** PROPERTIES
**
*SOLID SECTION, ELSET=ALL_ELEMS, MATERIAL=IM7-8552
**
** MATERIALS
**
*Material, name=IM7-8552
*Density
 1.57e-09,
*User material, constants=4
** 1              2                  3          4
** feature flags, , thickness, 4, 5, 6, 7, 8
               0, ,  <length>,  ,  ,  ,  ,  ,
**
*Depvar, delete=11
  19,
  1, CDM_d2
  2, CDM_Fb1
  3, CDM_Fb2
  4, CDM_Fb3
  5, CDM_B
  6, CDM_Lc
  7, CDM_FIfT
  8, CDM_d1
  9, CDM_FImT
 10, CDM_alpha
 11, CDM_STATUS
 12, CDM_Plas12
 13, CDM_Inel12
 14, CDM_mCompInit
 15, CDM_slide1
 16, CDM_slide2
 17, CDM_FIfC
 18, CDM_d1T
 19, CDM_d1C
**
** INITIAL CONDITIONS
**
*Initial Conditions, Type=Solution
ALL_ELEMS,  0.d0,  0.d0,  0.d0,  0.d0,  0.d0,  0.d0,  0.d0,
            0.d0,  0.d0,  -999,     1,  0.d0,  0.d0,  0.d0,
            0.d0,  0.d0,  0.d0,  0.d0,  0.d0
*BOUNDARY
  Y-, 2, 2, 0
  X-, 1, 1, 0
  Z-, 3, 3, 0
**
** Equations for constraining keeping the 1-direction faces parallel
** *Equation
**  2
**  2, 1, 1., 3, 1, -1.
**  2
**  3, 1, 1., 6, 1, -1.
**  2
**  6, 1, 1., 7, 1, -1.
** ** Equations for constraining keeping the 3-direction faces parallel
** *Equation
**  2
**  5, 3, 1., 6, 3, -1.
**  2
**  6, 3, 1., 7, 3, -1.
**  2
**  7, 3, 1., 8, 3, -1.
**
*Amplitude, name=LoadUp, definition=SMOOTH STEP
 0., 0., <stepDuration>, 1.
** STEP 1 - TENSION MECHANICAL CYCLE
**
*STEP, NLGEOM=YES
*Dynamic, Explicit
 , <stepDuration>, ,
*Bulk Viscosity
 0.06, 1.2
** Mass Scaling: Semi-Automatic
**               Whole Model
*Fixed Mass Scaling, factor=5000.
**
** LOADING
**
*Boundary, AMPLITUDE=LoadUp
 Y+, 2, 2, <displacement>
**
** OUTPUT
**
*OUTPUT, FIELD
*ELEMENT OUTPUT
 SDV, S, LE
*Node Output
 U, RF
*OUTPUT, HISTORY, frequency=1
*Energy Output
 ALLIE, ALLKE
*NODE OUTPUT, NSET=Y+
 U
*NODE OUTPUT, NSET=Y+
 RF
*ELEMENT OUTPUT, ELSET=ALL_ELEMS
 SDV, S, LE
**
*END STEP
