*Heading
 Single element test for characteristic element length calculations
**
*Parameter
** Inputs parameters
 alpha = 1.0
**
 length2 = 0.2
 length1 = length2 * alpha
 length3 = 0.1
 displacement = 0.0
 stepDuration = 5.e-7
**
 fiber_angle = 0.0
 misalignment_angle = 0.0
 skew_angle = 0.0
**
** Dependent parameters and constants
 Pi = 2.0 * acos(0.0)
 skew_1 = length2 * sin(Pi * skew_angle / 180.0)
 skew_2 = length2 * (1.0 - cos(Pi * skew_angle / 180.0))
**
*Node, nset=AllNodes
      1,            0.,            0.,             0.
      2,     <length1>,            0.,             0.
      3,            0.,     <length2>,             0.
      5,            0.,            0.,      <length3>
      6,     <length1>,            0.,      <length3>
      7,            0.,     <length2>,      <length3>
*NSET, NSET=X+
  2, 3, 6, 7
*NSET, NSET=X-
  1, 5
*NSET, NSET=Y+
  3, 7
*NSET, NSET=Y-
  1, 2, 5, 6
*NSET, NSET=Z+
  5, 6, 7
*NSET, NSET=Z-
  1, 2, 3
*NMAP, type=TRANSLATION, nset=Y+
 0., 0., 0., 1., 0., 0.
 <skew_1>
*NMAP, type=TRANSLATION, nset=Y+
 0., 0., 0., 0., 1., 0.
 -<skew_2>
*NMAP, type=ROTATION, nset=AllNodes
 0., 0., 0., 0., 0., 1.
 1., 0., 0.
 <misalignment_angle>
**
*Element, type=C3D6, elset=SingleElement
  1, 1, 2, 3, 5, 6, 7
**
*Orientation, name=Ori-1
 1., 0., 0., 0., 1., 0.
 3, <fiber_angle>
*Solid Section, elset=SingleElement, orientation=Ori-1, material=IM7-8552
**
*Material, name=IM7-8552
*Density
 1.57e-09,
*User material, constants=4
** feature flags, , thickness, 4, 5, 6, 7, 8
               0, , <length3>,  ,  ,  ,  ,  ,
*Depvar, delete=11
  19,
  1, CDM_d2
  2, CDM_Fb1
  3, CDM_Fb2
  4, CDM_Fb3
  5, CDM_B
  6, CDM_Lc1
  7, CDM_Lc2
  8, CDM_Lc3
  9, CDM_FIm
 10, CDM_alpha
 11, CDM_STATUS
 12, CDM_Plas12
 13, CDM_Inel12
 14, CDM_FIfT
 15, CDM_slide1
 16, CDM_slide2
 17, CDM_FIfC
 18, CDM_d1T
 19, CDM_d1C
*Characteristic Length, definition=USER, components=3
**
*Initial Conditions, type=Solution
 SingleElement, 0.d0, 0.d0, 0.d0, 0.d0, 0.d0, 0.d0, 0.d0,
                0.d0, 0.d0, 0.d0,    1, 0.d0, 0.d0, 0.d0,
                0.d0, 0.d0, 0.d0, 0.d0, 0.d0
*Boundary
  AllNodes, 1, 3, 0
**
*Step, nlgeom=YES
*Dynamic, Explicit
 , <stepDuration>, ,
*Fixed Mass Scaling, type=BELOW MIN, dt=<stepDuration>
**
*Output, FIELD
*Element Output
 SDV
*Node Output
 U, RF
*Output, HISTORY, frequency=1
*Energy Output
 ALLIE, ALLKE
*Element Output, elset=SingleElement
 SDV
**
*End Step
