*Heading
 Single element test for simple shear loading with friction and compression
**
*Parameter
 length = 0.1
 shear_displacement = 0.1
 compressive_displacement = 0.00045
**
** NODES
**
*NODE, NSET=GLOBAL
      1,            0.,            0.,            0.
      2,      <length>,            0.,            0.
      3,      <length>,      <length>,            0.
      4,            0.,      <length>,            0.
*NSET, NSET=X+
  2, 3
*NSET, NSET=X-
  1, 4
*NSET, NSET=Y+
  3, 4
*NSET, NSET=Y-
  1, 2
**
** ELEMENTS
**
*ELEMENT, TYPE=S4R, ELSET=ALL_ELEMS
  1, 1, 2, 3, 4
**
** PROPERTIES
**
*Shell Section, elset=ALL_ELEMS, material=IM7-8552, thickness modulus=9080.d0, poisson=0.32d0
 <length>, 3
*Transverse Shear Stiffness
 5290.d0, 2987.d0, 0.d0
**
** MATERIALS
**
*Material, name=IM7-8552
*Density
 1.59d-05,
*User material, constants=4
** 1              2                  3          4
** feature flags, , thickness, 4, 5, 6, 7, 8
          100001, ,  <length>,  ,  ,  ,  ,  ,
*Depvar, delete=11
  19,
  1, CDM_d2
  2, CDM_Fb1
  3, CDM_Fb2
  4, CDM_Fb3
  5, CDM_B
  6, CDM_Lc
  7, CDM_FIfT
  8, CDM_d1
  9, CDM_FImT
 10, CDM_alpha
 11, CDM_STATUS
 12, CDM_Plas12
 13, CDM_Inel12
 14, CDM_mCompInit
 15, CDM_slide1
 16, CDM_slide2
 17, CDM_FIfC
 18, CDM_d1T
 19, CDM_d1C
**
** INITIAL CONDITIONS
**
*Initial Conditions, Type=Solution
ALL_ELEMS,  0.d0,  0.d0,  0.d0,  0.d0,  0.d0,  0.d0,  0.d0,
            0.d0,  0.d0,     0,     1,  0.d0,  0.d0,  0.d0,
            0.d0,  0.d0,  0.d0,  0.d0,  0.d0
*BOUNDARY
  Y-, 1, 3, 0
  Y+, 1, 3, 0
*Amplitude, name=LoadUp, definition=SMOOTH STEP
0., 0., 0.1, 1.
*Amplitude, name=LoadDown, definition=SMOOTH STEP
0., 1., 0.2, -1.
**
*STEP, NLGEOM=YES
*Dynamic, Explicit
 , 0.1, ,
**
** OUTPUT
**
*OUTPUT, FIELD
*ELEMENT OUTPUT
 SDV, S, LE
*Node Output
 U, RF
*OUTPUT, HISTORY, frequency=1
*Energy Output
 ALLIE, ALLKE
*NODE OUTPUT, NSET=Y+
 U, RF
*ELEMENT OUTPUT, ELSET=ALL_ELEMS
 SDV, S, LE
**
** LOADING
**
*Boundary, AMPLITUDE=LoadUp
 Y+, 2, 2, -<compressive_displacement>
*END STEP
**
**
*STEP, NLGEOM=YES
*Dynamic, Explicit
 , 0.1, ,
**
** OUTPUT
**
*OUTPUT, FIELD
*ELEMENT OUTPUT
 SDV, S, LE
*Node Output
 U, RF
*OUTPUT, HISTORY, frequency=1
*Energy Output
 ALLIE, ALLKE
*NODE OUTPUT, NSET=Y+
 U, RF
*ELEMENT OUTPUT, ELSET=ALL_ELEMS
 SDV, S, LE
**
** LOADING
**
*Boundary, AMPLITUDE=LoadUp
 Y+, 1, 1, <shear_displacement>
*END STEP
**
**
*STEP, NLGEOM=YES
*Dynamic, Explicit
 , 0.2, ,
**
** OUTPUT
**
*OUTPUT, FIELD
*ELEMENT OUTPUT
 SDV, S, LE
*Node Output
 U, RF
*OUTPUT, HISTORY, frequency=1
*Energy Output
 ALLIE, ALLKE
*NODE OUTPUT, NSET=Y+
 U, RF
*ELEMENT OUTPUT, ELSET=ALL_ELEMS
 SDV, S, LE
**
** LOADING
**
*Boundary, AMPLITUDE=LoadDown
 Y+, 1, 1, <shear_displacement>
*END STEP
